*Heading
** Vulcain 2.1-like nozzle solid (CalculiX)

*Node and element definitions will be imported from the provided mesh*

*MATERIAL, NAME=STEEL
*ELASTIC
210000, 0.3
*DENSITY
7850
*CONDUCTIVITY
45
*SPECIFIC HEAT
500

*BOUNDARY, NSET=INLET
1, 1, 0.0
1, 2, 0.0
1, 3, 0.0

*SURFACE, NAME=NOZZLE_WALL, TYPE=ELEMENT
... (to be filled by mesh import)
*SURFACE, NAME=COOLING_WALL, TYPE=ELEMENT
... (to be filled by mesh import)

*STEP
*STATIC
*COUPLING, SURFACE=NOZZLE_WALL, DOF=1,2,3
*COUPLING, SURFACE=COOLING_WALL, DOF=1,2,3
*END STEP
